@<TRIPOS>MOLECULE
UNL
   12    11     1     0     0
SMALL
bcc


@<TRIPOS>ATOM
      1 C1          -0.8730    -1.0610    -0.0790 c3         1 UNL       0.079300
      2 N1          -0.0530     0.1330    -0.0890 n          1 UNL      -0.494800
      3 C2           1.3520    -0.0060     0.2430 c3         1 UNL       0.079300
      4 C3          -0.6120     1.3860    -0.2360 c          1 UNL       0.660900
      5 O1          -0.0180     2.4530    -0.1530 o          1 UNL      -0.604100
      6 H1          -0.4470    -1.7920    -0.7720 h1         1 UNL       0.041700
      7 H2          -1.9000    -0.8360    -0.3800 h1         1 UNL       0.041700
      8 H3          -0.8810    -1.4750     0.9330 h1         1 UNL       0.041700
      9 H4           1.4350    -0.3490     1.2780 h1         1 UNL       0.041700
     10 H5           1.8030    -0.7450    -0.4250 h1         1 UNL       0.041700
     11 H6           1.8860     0.9420     0.1370 h1         1 UNL       0.041700
     12 H7          -1.6920     1.3490    -0.4560 h5         1 UNL       0.028200
@<TRIPOS>BOND
     1     1     2 1   
     2     1     6 1   
     3     1     7 1   
     4     1     8 1   
     5     2     3 1   
     6     2     4 1   
     7     3     9 1   
     8     3    10 1   
     9     3    11 1   
    10     4     5 2   
    11     4    12 1   
@<TRIPOS>SUBSTRUCTURE
     1 UNL         1 TEMP              0 ****  ****    0 ROOT
