@<TRIPOS>MOLECULE
UNL
   12    11     1     0     0
SMALL
bcc


@<TRIPOS>ATOM
      1 C1           1.2790    -0.2590    -0.4270 c3         1 UNL       0.079300
      2 N1          -0.0090     0.1110     0.1270 n          1 UNL      -0.494800
      3 C2          -1.1180    -0.7990    -0.0720 c3         1 UNL       0.079300
      4 C3          -0.1980     1.3650     0.6700 c          1 UNL       0.660900
      5 O1           0.6530     2.2380     0.7800 o          1 UNL      -0.604100
      6 H1           1.5620    -1.2430    -0.0440 h1         1 UNL       0.041700
      7 H2           1.1930    -0.3010    -1.5170 h1         1 UNL       0.041700
      8 H3           2.0550     0.4640    -0.1600 h1         1 UNL       0.041700
      9 H4          -2.0220    -0.4310     0.4210 h1         1 UNL       0.041700
     10 H5          -0.8560    -1.7770     0.3420 h1         1 UNL       0.041700
     11 H6          -1.3100    -0.8920    -1.1450 h1         1 UNL       0.041700
     12 H7          -1.2290     1.5250     1.0250 h5         1 UNL       0.028200
@<TRIPOS>BOND
     1     1     2 1   
     2     1     6 1   
     3     1     7 1   
     4     1     8 1   
     5     2     3 1   
     6     2     4 1   
     7     3     9 1   
     8     3    10 1   
     9     3    11 1   
    10     4     5 2   
    11     4    12 1   
@<TRIPOS>SUBSTRUCTURE
     1 UNL         1 TEMP              0 ****  ****    0 ROOT
